<net>

    <location netOffset="0.00,0.00" convBoundary="0.00,-100.00,300.00,200.00" origBoundary="-10000000000.00,-10000000000.00,10000000000.00,10000000000.00" projParameter="!"/>

    <edge id=":J1_0" function="internal">
        <lane id=":J1_0_0" index="0" speed="10.00" length="9.03" shape="98.40,7.20 98.05,4.75 97.00,3.00 95.25,1.95 92.80,1.60"/>
    </edge>
    <edge id=":J1_1" function="internal">
        <lane id=":J1_1_0" index="0" speed="11.95" length="14.40" shape="98.40,7.20 98.40,-7.20"/>
    </edge>
    <edge id=":J1_2" function="internal">
        <lane id=":J1_2_0" index="0" speed="9.00" length="14.40" shape="101.60,-7.20 101.60,7.20"/>
    </edge>
    <edge id=":J1_3" function="internal">
        <lane id=":J1_3_0" index="0" speed="9.00" length="14.19" shape="101.60,-7.20 101.05,-3.35 99.40,-0.60 96.65,1.05 92.80,1.60"/>
    </edge>
    <edge id=":J1_4" function="internal">
        <lane id=":J1_4_0" index="0" speed="11.95" length="9.03" shape="92.80,-1.60 95.25,-1.95 97.00,-3.00 98.05,-4.75 98.40,-7.20"/>
    </edge>
    <edge id=":J1_5" function="internal">
        <lane id=":J1_5_0" index="0" speed="10.00" length="14.19" shape="92.80,-1.60 96.65,-1.05 99.40,0.60 101.05,3.35 101.60,7.20"/>
    </edge>
    <edge id=":J2_0" function="internal">
        <lane id=":J2_0_0" index="0" speed="13.89" length="9.03" shape="98.40,107.20 98.05,104.75 97.00,103.00 95.25,101.95 92.80,101.60"/>
    </edge>
    <edge id=":J2_1" function="internal">
        <lane id=":J2_1_0" index="0" speed="11.95" length="14.40" shape="98.40,107.20 98.40,92.80"/>
    </edge>
    <edge id=":J2_2" function="internal">
        <lane id=":J2_2_0" index="0" speed="11.95" length="5.93" shape="98.40,107.20 98.95,103.35 100.00,101.60"/>
    </edge>
    <edge id=":J2_12" function="internal">
        <lane id=":J2_12_0" index="0" speed="11.95" length="8.26" shape="100.00,101.60 100.60,100.60 103.35,98.95 107.20,98.40"/>
    </edge>
    <edge id=":J2_3" function="internal">
        <lane id=":J2_3_0" index="0" speed="11.95" length="9.03" shape="107.20,101.60 104.75,101.95 103.00,103.00 101.95,104.75 101.60,107.20"/>
    </edge>
    <edge id=":J2_4" function="internal">
        <lane id=":J2_4_0" index="0" speed="11.95" length="14.40" shape="107.20,101.60 92.80,101.60"/>
    </edge>
    <edge id=":J2_5" function="internal">
        <lane id=":J2_5_0" index="0" speed="10.00" length="14.19" shape="107.20,101.60 103.35,101.05 100.60,99.40 98.95,96.65 98.40,92.80"/>
    </edge>
    <edge id=":J2_6" function="internal">
        <lane id=":J2_6_0" index="0" speed="10.00" length="9.03" shape="101.60,92.80 101.95,95.25 103.00,97.00 104.75,98.05 107.20,98.40"/>
    </edge>
    <edge id=":J2_7" function="internal">
        <lane id=":J2_7_0" index="0" speed="11.95" length="14.40" shape="101.60,92.80 101.60,107.20"/>
    </edge>
    <edge id=":J2_8" function="internal">
        <lane id=":J2_8_0" index="0" speed="11.95" length="5.93" shape="101.60,92.80 101.05,96.65 100.00,98.40"/>
    </edge>
    <edge id=":J2_13" function="internal">
        <lane id=":J2_13_0" index="0" speed="11.95" length="8.26" shape="100.00,98.40 99.40,99.40 96.65,101.05 92.80,101.60"/>
    </edge>
    <edge id=":J2_9" function="internal">
        <lane id=":J2_9_0" index="0" speed="7.50" length="9.03" shape="92.80,98.40 95.25,98.05 97.00,97.00 98.05,95.25 98.40,92.80"/>
    </edge>
    <edge id=":J2_10" function="internal">
        <lane id=":J2_10_0" index="0" speed="7.50" length="14.40" shape="92.80,98.40 107.20,98.40"/>
    </edge>
    <edge id=":J2_11" function="internal">
        <lane id=":J2_11_0" index="0" speed="9.45" length="14.19" shape="92.80,98.40 96.65,98.95 99.40,100.60 101.05,103.35 101.60,107.20"/>
    </edge>
    <edge id=":J3_0" function="internal">
        <lane id=":J3_0_0" index="0" speed="11.95" length="9.74" shape="198.40,111.73 198.05,108.63 197.01,107.22 195.27,107.48 192.84,109.42"/>
    </edge>
    <edge id=":J3_1" function="internal">
        <lane id=":J3_1_0" index="0" speed="10.00" length="16.33" shape="198.40,111.73 197.77,107.30 195.87,104.13 192.70,102.23 188.27,101.60"/>
    </edge>
    <edge id=":J3_2" function="internal">
        <lane id=":J3_2_0" index="0" speed="11.95" length="23.45" shape="198.40,111.73 198.40,88.27"/>
    </edge>
    <edge id=":J3_3" function="internal">
        <lane id=":J3_3_0" index="0" speed="11.95" length="23.49" shape="198.40,111.73 198.95,105.76 200.59,100.24 203.33,95.18 207.16,90.58"/>
    </edge>
    <edge id=":J3_4" function="internal">
        <lane id=":J3_4_0" index="0" speed="11.95" length="21.49" shape="198.40,111.73 199.23,105.90 201.73,101.73 205.90,99.23 211.73,98.40"/>
    </edge>
    <edge id=":J3_5" function="internal">
        <lane id=":J3_5_0" index="0" speed="11.95" length="16.33" shape="211.73,101.60 207.30,102.23 204.13,104.13 202.23,107.30 201.60,111.73"/>
    </edge>
    <edge id=":J3_6" function="internal">
        <lane id=":J3_6_0" index="0" speed="13.89" length="20.98" shape="211.73,101.60 206.40,102.09 201.47,103.56 196.95,106.00 192.84,109.42"/>
    </edge>
    <edge id=":J3_7" function="internal">
        <lane id=":J3_7_0" index="0" speed="11.95" length="23.45" shape="211.73,101.60 188.27,101.60"/>
    </edge>
    <edge id=":J3_8" function="internal">
        <lane id=":J3_8_0" index="0" speed="13.89" length="21.49" shape="211.73,101.60 205.90,100.77 201.73,98.27 199.23,94.10 198.40,88.27"/>
    </edge>
    <edge id=":J3_9" function="internal">
        <lane id=":J3_9_0" index="0" speed="13.89" length="19.31" shape="211.73,101.60 205.59,100.91 202.79,98.84 203.31,95.40 207.16,90.58"/>
    </edge>
    <edge id=":J3_10" function="internal">
        <lane id=":J3_10_0" index="0" speed="13.89" length="9.74" shape="209.42,92.84 207.48,95.27 207.22,97.01 208.63,98.05 211.73,98.40"/>
    </edge>
    <edge id=":J3_11" function="internal">
        <lane id=":J3_11_0" index="0" speed="11.95" length="20.98" shape="209.42,92.84 206.00,96.95 203.56,101.47 202.09,106.40 201.60,111.73"/>
    </edge>
    <edge id=":J3_12" function="internal">
        <lane id=":J3_12_0" index="0" speed="13.89" length="23.45" shape="209.42,92.84 192.84,109.42"/>
    </edge>
    <edge id=":J3_13" function="internal">
        <lane id=":J3_13_0" index="0" speed="11.95" length="7.19" shape="209.42,92.84 205.33,95.70 203.35,96.65"/>
    </edge>
    <edge id=":J3_14" function="internal">
        <lane id=":J3_14_0" index="0" speed="13.89" length="7.71" shape="209.42,92.84 204.60,96.69 203.08,96.92"/>
    </edge>
    <edge id=":J3_30" function="internal">
        <lane id=":J3_30_0" index="0" speed="11.95" length="15.96" shape="203.35,96.65 199.40,98.55 193.19,100.73 188.27,101.60"/>
    </edge>
    <edge id=":J3_31" function="internal">
        <lane id=":J3_31_0" index="0" speed="13.89" length="11.60" shape="203.08,96.92 201.16,97.21 199.09,94.41 198.40,88.27"/>
    </edge>
    <edge id=":J3_15" function="internal">
        <lane id=":J3_15_0" index="0" speed="9.45" length="9.74" shape="201.60,88.27 201.95,91.37 202.99,92.78 204.73,92.52 207.16,90.58"/>
    </edge>
    <edge id=":J3_16" function="internal">
        <lane id=":J3_16_0" index="0" speed="9.45" length="16.33" shape="201.60,88.27 202.23,92.70 204.13,95.87 207.30,97.77 211.73,98.40"/>
    </edge>
    <edge id=":J3_17" function="internal">
        <lane id=":J3_17_0" index="0" speed="7.50" length="23.45" shape="201.60,88.27 201.60,111.73"/>
    </edge>
    <edge id=":J3_18" function="internal">
        <lane id=":J3_18_0" index="0" speed="9.45" length="23.49" shape="201.60,88.27 201.05,94.24 199.41,99.76 196.67,104.82 192.84,109.42"/>
    </edge>
    <edge id=":J3_19" function="internal">
        <lane id=":J3_19_0" index="0" speed="7.50" length="21.49" shape="201.60,88.27 200.77,94.10 198.27,98.27 194.10,100.77 188.27,101.60"/>
    </edge>
    <edge id=":J3_20" function="internal">
        <lane id=":J3_20_0" index="0" speed="11.95" length="16.33" shape="188.27,98.40 192.70,97.77 195.87,95.87 197.77,92.70 198.40,88.27"/>
    </edge>
    <edge id=":J3_21" function="internal">
        <lane id=":J3_21_0" index="0" speed="11.95" length="20.98" shape="188.27,98.40 193.60,97.91 198.53,96.44 203.05,94.00 207.16,90.58"/>
    </edge>
    <edge id=":J3_22" function="internal">
        <lane id=":J3_22_0" index="0" speed="11.95" length="23.45" shape="188.27,98.40 211.73,98.40"/>
    </edge>
    <edge id=":J3_23" function="internal">
        <lane id=":J3_23_0" index="0" speed="10.00" length="21.49" shape="188.27,98.40 194.10,99.23 198.27,101.73 200.77,105.90 201.60,111.73"/>
    </edge>
    <edge id=":J3_24" function="internal">
        <lane id=":J3_24_0" index="0" speed="11.95" length="19.31" shape="188.27,98.40 194.41,99.09 197.21,101.16 196.69,104.60 192.84,109.42"/>
    </edge>
    <edge id=":J3_25" function="internal">
        <lane id=":J3_25_0" index="0" speed="11.95" length="9.74" shape="190.58,107.16 192.52,104.73 192.78,102.99 191.37,101.95 188.27,101.60"/>
    </edge>
    <edge id=":J3_26" function="internal">
        <lane id=":J3_26_0" index="0" speed="13.89" length="20.98" shape="190.58,107.16 194.00,103.05 196.44,98.53 197.91,93.60 198.40,88.27"/>
    </edge>
    <edge id=":J3_27" function="internal">
        <lane id=":J3_27_0" index="0" speed="13.89" length="23.45" shape="190.58,107.16 207.16,90.58"/>
    </edge>
    <edge id=":J3_28" function="internal">
        <lane id=":J3_28_0" index="0" speed="13.89" length="9.68" shape="190.58,107.16 195.18,103.33 198.43,101.57"/>
    </edge>
    <edge id=":J3_29" function="internal">
        <lane id=":J3_29_0" index="0" speed="11.95" length="7.71" shape="190.58,107.16 195.40,103.31 196.92,103.08"/>
    </edge>
    <edge id=":J3_32" function="internal">
        <lane id=":J3_32_0" index="0" speed="13.89" length="13.81" shape="198.43,101.57 200.24,100.59 205.76,98.95 211.73,98.40"/>
    </edge>
    <edge id=":J3_33" function="internal">
        <lane id=":J3_33_0" index="0" speed="11.95" length="11.60" shape="196.92,103.08 198.84,102.79 200.91,105.59 201.60,111.73"/>
    </edge>
    <edge id=":J4_0" function="internal">
        <lane id=":J4_0_0" index="0" speed="13.89" length="14.35" shape="106.59,195.67 103.01,198.53 100.45,198.92 98.91,196.83 98.40,192.27"/>
    </edge>
    <edge id=":J4_1" function="internal">
        <lane id=":J4_1_0" index="0" speed="13.89" length="4.78" shape="101.60,192.27 101.77,193.79 102.28,194.49 103.14,194.36 104.33,193.41"/>
    </edge>

    <edge id="-E0" from="J1" to="J0" priority="-1" length="70.00">
        <lane id="-E0_0" index="0" speed="10.00" length="70.00" shape="92.80,1.60 0.00,1.60"/>
    </edge>
    <edge id="-E1" from="J1" to="J2" priority="-1" spreadType="center" length="50.00" shape="101.60,0.00 101.60,100.03">
        <lane id="-E1_0" index="0" speed="10.00" length="50.00" shape="101.60,7.20 101.60,92.80"/>
    </edge>
    <edge id="-E10" from="J1" to="J10" priority="-1">
        <lane id="-E10_0" index="0" speed="13.89" length="92.80" shape="98.40,-7.20 98.40,-100.00"/>
    </edge>
    <edge id="-E2" from="J3" to="J2" priority="-1" length="70.00">
        <lane id="-E2_0" index="0" speed="10.00" length="70.00" shape="188.27,101.60 107.20,101.60"/>
    </edge>
    <edge id="-E3" from="J4" to="J2" priority="-1">
        <lane id="-E3_0" index="0" speed="13.89" length="85.07" shape="98.40,192.27 98.40,107.20"/>
    </edge>
    <edge id="-E4" from="J5" to="J2" priority="-1" length="70.00">
        <lane id="-E4_0" index="0" speed="5.00" length="70.00" shape="0.00,98.40 92.80,98.40"/>
    </edge>
    <edge id="-E5" from="J6" to="J3" priority="-1" length="50.00">
        <lane id="-E5_0" index="0" speed="10.00" length="50.00" shape="198.40,200.00 198.40,111.73"/>
    </edge>
    <edge id="-E6" from="J7" to="J3" priority="-1" length="110.00">
        <lane id="-E6_0" index="0" speed="5.00" length="110.00" shape="201.60,0.00 201.60,88.27"/>
    </edge>
    <edge id="-E7" from="J8" to="J3" priority="-1">
        <lane id="-E7_0" index="0" speed="13.89" length="88.27" shape="300.00,101.60 211.73,101.60"/>
    </edge>
    <edge id="-E8" from="J9" to="J3" priority="-1">
        <lane id="-E8_0" index="0" speed="13.89" length="129.70" shape="301.13,1.13 209.42,92.84"/>
    </edge>
    <edge id="-E9" from="J4" to="J3" priority="-1">
        <lane id="-E9_0" index="0" speed="13.89" length="121.97" shape="104.33,193.41 190.58,107.16"/>
    </edge>
    <edge id="E0" from="J0" to="J1" priority="-1" length="70.00">
        <lane id="E0_0" index="0" speed="10.00" length="70.00" shape="0.00,-1.60 92.80,-1.60"/>
    </edge>
    <edge id="E1" from="J2" to="J1" priority="-1" length="50.00">
        <lane id="E1_0" index="0" speed="10.00" length="50.00" shape="98.40,92.80 98.40,7.20"/>
    </edge>
    <edge id="E10" from="J10" to="J1" priority="-1" length="70.00">
        <lane id="E10_0" index="0" speed="8.00" length="70.00" shape="101.60,-100.00 101.60,-7.20"/>
    </edge>
    <edge id="E2" from="J2" to="J3" priority="-1" length="70.00">
        <lane id="E2_0" index="0" speed="10.00" length="70.00" shape="107.20,98.40 188.27,98.40"/>
    </edge>
    <edge id="E3" from="J2" to="J4" priority="-1">
        <lane id="E3_0" index="0" speed="13.89" length="85.07" shape="101.60,107.20 101.60,192.27"/>
    </edge>
    <edge id="E4" from="J2" to="J5" priority="-1">
        <lane id="E4_0" index="0" speed="13.89" length="92.80" shape="92.80,101.60 0.00,101.60"/>
    </edge>
    <edge id="E5" from="J3" to="J6" priority="-1" length="50.00">
        <lane id="E5_0" index="0" speed="10.00" length="50.00" shape="201.60,111.73 201.60,200.00"/>
    </edge>
    <edge id="E6" from="J3" to="J7" priority="-1">
        <lane id="E6_0" index="0" speed="13.89" length="88.27" shape="198.40,88.27 198.40,0.00"/>
    </edge>
    <edge id="E7" from="J3" to="J8" priority="-1">
        <lane id="E7_0" index="0" speed="13.89" length="88.27" shape="211.73,98.40 300.00,98.40"/>
    </edge>
    <edge id="E8" from="J3" to="J9" priority="-1">
        <lane id="E8_0" index="0" speed="13.89" length="129.70" shape="207.16,90.58 298.87,-1.13"/>
    </edge>
    <edge id="E9" from="J3" to="J4" priority="-1">
        <lane id="E9_0" index="0" speed="13.89" length="121.97" shape="192.84,109.42 106.59,195.67"/>
    </edge>

    <junction id="J0" type="dead_end" x="0.00" y="0.00" incLanes="-E0_0" intLanes="" shape="0.00,0.00 0.00,3.20 0.00,0.00"/>
    <junction id="J1" type="priority" x="100.00" y="0.00" incLanes="E1_0 E10_0 E0_0" intLanes=":J1_0_0 :J1_1_0 :J1_2_0 :J1_3_0 :J1_4_0 :J1_5_0" shape="96.80,7.20 103.20,7.20 103.20,-7.20 96.80,-7.20 92.80,-3.20 92.80,3.20">
        <request index="0" response="000000" foes="001000" cont="0"/>
        <request index="1" response="110000" foes="111000" cont="0"/>
        <request index="2" response="100000" foes="100000" cont="0"/>
        <request index="3" response="100011" foes="100011" cont="0"/>
        <request index="4" response="000000" foes="000010" cont="0"/>
        <request index="5" response="000000" foes="001110" cont="0"/>
    </junction>
    <junction id="J10" type="dead_end" x="100.00" y="-100.00" incLanes="-E10_0" intLanes="" shape="100.00,-100.00 96.80,-100.00 100.00,-100.00"/>
    <junction id="J2" type="priority" x="100.00" y="100.00" incLanes="-E3_0 -E2_0 -E1_0 -E4_0" intLanes=":J2_0_0 :J2_1_0 :J2_12_0 :J2_3_0 :J2_4_0 :J2_5_0 :J2_6_0 :J2_7_0 :J2_13_0 :J2_9_0 :J2_10_0 :J2_11_0" shape="96.80,107.20 103.20,107.20 107.20,103.20 107.20,96.80 103.20,92.80 96.80,92.80 92.80,96.80 92.80,103.20">
        <request index="0"  response="000000000000" foes="000100010000" cont="0"/>
        <request index="1"  response="000000000000" foes="111100110000" cont="0"/>
        <request index="2"  response="000011000000" foes="110011110000" cont="1"/>
        <request index="3"  response="000010000000" foes="100010000000" cont="0"/>
        <request index="4"  response="000110000111" foes="100110000111" cont="0"/>
        <request index="5"  response="011110000110" foes="011110000110" cont="0"/>
        <request index="6"  response="000000000000" foes="010000000100" cont="0"/>
        <request index="7"  response="000000000000" foes="110000111100" cont="0"/>
        <request index="8"  response="000000000011" foes="110000110011" cont="1"/>
        <request index="9"  response="000000000010" foes="000000100010" cont="0"/>
        <request index="10" response="000111000110" foes="000111100110" cont="0"/>
        <request index="11" response="000110011110" foes="000110011110" cont="0"/>
    </junction>
    <junction id="J3" type="priority" x="200.00" y="100.00" incLanes="-E5_0 -E7_0 -E8_0 -E6_0 E2_0 -E9_0" intLanes=":J3_0_0 :J3_1_0 :J3_2_0 :J3_3_0 :J3_4_0 :J3_5_0 :J3_6_0 :J3_7_0 :J3_8_0 :J3_9_0 :J3_10_0 :J3_11_0 :J3_12_0 :J3_30_0 :J3_31_0 :J3_15_0 :J3_16_0 :J3_17_0 :J3_18_0 :J3_19_0 :J3_20_0 :J3_21_0 :J3_22_0 :J3_23_0 :J3_24_0 :J3_25_0 :J3_26_0 :J3_27_0 :J3_32_0 :J3_33_0" shape="196.80,111.73 203.20,111.73 211.73,103.20 211.73,96.80 210.55,93.97 206.03,89.45 203.20,88.27 196.80,88.27 188.27,96.80 188.27,103.20 189.45,106.03 193.97,110.55">
        <request index="0"  response="000000000000000001000000000000" foes="000001000001000001000001000000" cont="0"/>
        <request index="1"  response="111110000000000011000010000000" foes="111111000011000011000011000000" cont="0"/>
        <request index="2"  response="111100010000000111000000000000" foes="111100111111000111000111000000" cont="0"/>
        <request index="3"  response="111000111001111111000010000000" foes="111000111001111111001111000000" cont="0"/>
        <request index="4"  response="110000110000110000110010000000" foes="110000110000110000111111000000" cont="0"/>
        <request index="5"  response="100000000000100000100000000000" foes="100000100000100000100000000000" cont="0"/>
        <request index="6"  response="100000000000100001100000011111" foes="100001100001100001100000011111" cont="0"/>
        <request index="7"  response="011110000000000011100000000100" foes="011111100011100011100000011110" cont="0"/>
        <request index="8"  response="011100011100100111100000011100" foes="011100011111100111100000011100" cont="0"/>
        <request index="9"  response="011000011000011111100000011000" foes="011000011000011111100000011000" cont="0"/>
        <request index="10" response="000000000000000000000000000000" foes="010000010000010000000000010000" cont="0"/>
        <request index="11" response="000000000000000000000000000000" foes="110000110000110000001111110000" cont="0"/>
        <request index="12" response="000000000000000000000000000000" foes="110001110001110000001111001111" cont="0"/>
        <request index="13" response="001110000000000000000000000000" foes="001111110011110000001110001110" cont="1"/>
        <request index="14" response="001100000000000000000000000000" foes="001100001111110000001100001100" cont="1"/>
        <request index="15" response="001000000000000000000000000000" foes="001000001000000000001000001000" cont="0"/>
        <request index="16" response="011000010000000111110000000000" foes="011000011000000111111000011000" cont="0"/>
        <request index="17" response="111000000000000111100010000000" foes="111000111000000111100111111000" cont="0"/>
        <request index="18" response="111000010000000111000111000111" foes="111001111000000111000111001111" cont="0"/>
        <request index="19" response="000110010000000110000110000110" foes="000111111000000110000110000110" cont="0"/>
        <request index="20" response="000100000000000100000000000100" foes="000100000000000100000100000100" cont="0"/>
        <request index="21" response="001100000011111100000000000100" foes="001100000011111100001100001100" cont="0"/>
        <request index="22" response="011100000000100011110000000000" foes="011100000011110011111100011100" cont="0"/>
        <request index="23" response="111100000011100011100011100100" foes="111100000011100011100011111100" cont="0"/>
        <request index="24" response="111100000011000011000011000011" foes="111100000011000011000011000011" cont="0"/>
        <request index="25" response="000000000000000000000000000000" foes="000000000010000010000010000010" cont="0"/>
        <request index="26" response="000000000000000000000000000000" foes="000001111110000110000110000110" cont="0"/>
        <request index="27" response="000000000000000000000000000000" foes="000001111001111110001110001110" cont="0"/>
        <request index="28" response="000000000000000001110000000000" foes="000001110001110001111110011110" cont="1"/>
        <request index="29" response="000000000000000001100000000000" foes="000001100001100001100001111110" cont="1"/>
    </junction>
    <junction id="J4" type="priority" x="100.00" y="200.00" incLanes="E9_0 E3_0" intLanes=":J4_0_0 :J4_1_0" shape="107.73,196.80 103.20,192.27 96.80,192.27">
        <request index="0" response="00" foes="00" cont="0"/>
        <request index="1" response="00" foes="00" cont="0"/>
    </junction>
    <junction id="J5" type="dead_end" x="0.00" y="100.00" incLanes="E4_0" intLanes="" shape="0.00,100.00 0.00,103.20 0.00,100.00"/>
    <junction id="J6" type="dead_end" x="200.00" y="200.00" incLanes="E5_0" intLanes="" shape="200.00,200.00 203.20,200.00 200.00,200.00"/>
    <junction id="J7" type="dead_end" x="200.00" y="0.00" incLanes="E6_0" intLanes="" shape="200.00,0.00 196.80,0.00 200.00,0.00"/>
    <junction id="J8" type="dead_end" x="300.00" y="100.00" incLanes="E7_0" intLanes="" shape="300.00,100.00 300.00,96.80 300.00,100.00"/>
    <junction id="J9" type="dead_end" x="300.00" y="0.00" incLanes="E8_0" intLanes="" shape="300.00,-0.00 297.74,-2.26 300.00,-0.00"/>

    <junction id=":J2_12_0" type="internal" x="100.00" y="101.60" incLanes=":J2_2_0 -E1_0" intLanes=":J2_4_0 :J2_5_0 :J2_6_0 :J2_7_0 :J2_10_0 :J2_11_0"/>
    <junction id=":J2_13_0" type="internal" x="100.00" y="98.40" incLanes=":J2_8_0 -E3_0" intLanes=":J2_0_0 :J2_1_0 :J2_4_0 :J2_5_0 :J2_10_0 :J2_11_0"/>
    <junction id=":J3_30_0" type="internal" x="203.35" y="96.65" incLanes=":J3_13_0 -E9_0" intLanes=":J3_1_0 :J3_2_0 :J3_3_0 :J3_7_0 :J3_8_0 :J3_9_0 :J3_16_0 :J3_17_0 :J3_18_0 :J3_19_0 :J3_22_0 :J3_23_0 :J3_24_0 :J3_25_0 :J3_26_0 :J3_27_0"/>
    <junction id=":J3_31_0" type="internal" x="203.08" y="96.92" incLanes=":J3_14_0 -E9_0" intLanes=":J3_2_0 :J3_3_0 :J3_8_0 :J3_9_0 :J3_16_0 :J3_17_0 :J3_18_0 :J3_19_0 :J3_20_0 :J3_21_0 :J3_26_0 :J3_27_0"/>
    <junction id=":J3_32_0" type="internal" x="198.43" y="101.57" incLanes=":J3_28_0 -E8_0" intLanes=":J3_1_0 :J3_2_0 :J3_3_0 :J3_4_0 :J3_7_0 :J3_8_0 :J3_9_0 :J3_10_0 :J3_11_0 :J3_12_0 :J3_16_0 :J3_17_0 :J3_18_0 :J3_22_0 :J3_23_0 :J3_24_0"/>
    <junction id=":J3_33_0" type="internal" x="196.92" y="103.08" incLanes=":J3_29_0 -E8_0" intLanes=":J3_1_0 :J3_2_0 :J3_3_0 :J3_4_0 :J3_5_0 :J3_6_0 :J3_11_0 :J3_12_0 :J3_17_0 :J3_18_0 :J3_23_0 :J3_24_0"/>

    <connection from="-E1" to="E2" fromLane="0" toLane="0" via=":J2_6_0" dir="r" state="M"/>
    <connection from="-E1" to="E3" fromLane="0" toLane="0" via=":J2_7_0" dir="s" state="M"/>
    <connection from="-E1" to="E4" fromLane="0" toLane="0" via=":J2_8_0" dir="l" state="m"/>
    <connection from="-E2" to="E3" fromLane="0" toLane="0" via=":J2_3_0" dir="r" state="m"/>
    <connection from="-E2" to="E4" fromLane="0" toLane="0" via=":J2_4_0" dir="s" state="m"/>
    <connection from="-E2" to="E1" fromLane="0" toLane="0" via=":J2_5_0" dir="l" state="m"/>
    <connection from="-E3" to="E4" fromLane="0" toLane="0" via=":J2_0_0" dir="r" state="M"/>
    <connection from="-E3" to="E1" fromLane="0" toLane="0" via=":J2_1_0" dir="s" state="M"/>
    <connection from="-E3" to="E2" fromLane="0" toLane="0" via=":J2_2_0" dir="l" state="m"/>
    <connection from="-E4" to="E1" fromLane="0" toLane="0" via=":J2_9_0" dir="r" state="m"/>
    <connection from="-E4" to="E2" fromLane="0" toLane="0" via=":J2_10_0" dir="s" state="m"/>
    <connection from="-E4" to="E3" fromLane="0" toLane="0" via=":J2_11_0" dir="l" state="m"/>
    <connection from="-E5" to="E9" fromLane="0" toLane="0" via=":J3_0_0" dir="r" state="m"/>
    <connection from="-E5" to="-E2" fromLane="0" toLane="0" via=":J3_1_0" dir="R" state="m"/>
    <connection from="-E5" to="E6" fromLane="0" toLane="0" via=":J3_2_0" dir="s" state="m"/>
    <connection from="-E5" to="E8" fromLane="0" toLane="0" via=":J3_3_0" dir="L" state="m"/>
    <connection from="-E5" to="E7" fromLane="0" toLane="0" via=":J3_4_0" dir="l" state="m"/>
    <connection from="-E6" to="E8" fromLane="0" toLane="0" via=":J3_15_0" dir="r" state="m"/>
    <connection from="-E6" to="E7" fromLane="0" toLane="0" via=":J3_16_0" dir="R" state="m"/>
    <connection from="-E6" to="E5" fromLane="0" toLane="0" via=":J3_17_0" dir="s" state="m"/>
    <connection from="-E6" to="E9" fromLane="0" toLane="0" via=":J3_18_0" dir="L" state="m"/>
    <connection from="-E6" to="-E2" fromLane="0" toLane="0" via=":J3_19_0" dir="l" state="m"/>
    <connection from="-E7" to="E5" fromLane="0" toLane="0" via=":J3_5_0" dir="r" state="m"/>
    <connection from="-E7" to="E9" fromLane="0" toLane="0" via=":J3_6_0" dir="R" state="m"/>
    <connection from="-E7" to="-E2" fromLane="0" toLane="0" via=":J3_7_0" dir="s" state="m"/>
    <connection from="-E7" to="E6" fromLane="0" toLane="0" via=":J3_8_0" dir="L" state="m"/>
    <connection from="-E7" to="E8" fromLane="0" toLane="0" via=":J3_9_0" dir="l" state="m"/>
    <connection from="-E8" to="E7" fromLane="0" toLane="0" via=":J3_10_0" dir="r" state="M"/>
    <connection from="-E8" to="E5" fromLane="0" toLane="0" via=":J3_11_0" dir="R" state="M"/>
    <connection from="-E8" to="E9" fromLane="0" toLane="0" via=":J3_12_0" dir="s" state="M"/>
    <connection from="-E8" to="-E2" fromLane="0" toLane="0" via=":J3_13_0" dir="L" state="m"/>
    <connection from="-E8" to="E6" fromLane="0" toLane="0" via=":J3_14_0" dir="l" state="m"/>
    <connection from="-E9" to="-E2" fromLane="0" toLane="0" via=":J3_25_0" dir="r" state="M"/>
    <connection from="-E9" to="E6" fromLane="0" toLane="0" via=":J3_26_0" dir="R" state="M"/>
    <connection from="-E9" to="E8" fromLane="0" toLane="0" via=":J3_27_0" dir="s" state="M"/>
    <connection from="-E9" to="E7" fromLane="0" toLane="0" via=":J3_28_0" dir="L" state="m"/>
    <connection from="-E9" to="E5" fromLane="0" toLane="0" via=":J3_29_0" dir="l" state="m"/>
    <connection from="E0" to="-E10" fromLane="0" toLane="0" via=":J1_4_0" dir="r" state="M"/>
    <connection from="E0" to="-E1" fromLane="0" toLane="0" via=":J1_5_0" dir="l" state="M"/>
    <connection from="E1" to="-E0" fromLane="0" toLane="0" via=":J1_0_0" dir="r" state="M"/>
    <connection from="E1" to="-E10" fromLane="0" toLane="0" via=":J1_1_0" dir="s" state="m"/>
    <connection from="E10" to="-E1" fromLane="0" toLane="0" via=":J1_2_0" dir="s" state="m"/>
    <connection from="E10" to="-E0" fromLane="0" toLane="0" via=":J1_3_0" dir="l" state="m"/>
    <connection from="E2" to="E6" fromLane="0" toLane="0" via=":J3_20_0" dir="r" state="m"/>
    <connection from="E2" to="E8" fromLane="0" toLane="0" via=":J3_21_0" dir="R" state="m"/>
    <connection from="E2" to="E7" fromLane="0" toLane="0" via=":J3_22_0" dir="s" state="m"/>
    <connection from="E2" to="E5" fromLane="0" toLane="0" via=":J3_23_0" dir="L" state="m"/>
    <connection from="E2" to="E9" fromLane="0" toLane="0" via=":J3_24_0" dir="l" state="m"/>
    <connection from="E3" to="-E9" fromLane="0" toLane="0" via=":J4_1_0" dir="r" state="M"/>
    <connection from="E9" to="-E3" fromLane="0" toLane="0" via=":J4_0_0" dir="l" state="M"/>

    <connection from=":J1_0" to="-E0" fromLane="0" toLane="0" dir="r" state="M"/>
    <connection from=":J1_1" to="-E10" fromLane="0" toLane="0" dir="s" state="M"/>
    <connection from=":J1_2" to="-E1" fromLane="0" toLane="0" dir="s" state="M"/>
    <connection from=":J1_3" to="-E0" fromLane="0" toLane="0" dir="l" state="M"/>
    <connection from=":J1_4" to="-E10" fromLane="0" toLane="0" dir="r" state="M"/>
    <connection from=":J1_5" to="-E1" fromLane="0" toLane="0" dir="l" state="M"/>
    <connection from=":J2_0" to="E4" fromLane="0" toLane="0" dir="r" state="M"/>
    <connection from=":J2_1" to="E1" fromLane="0" toLane="0" dir="s" state="M"/>
    <connection from=":J2_2" to="E2" fromLane="0" toLane="0" via=":J2_12_0" dir="l" state="m"/>
    <connection from=":J2_12" to="E2" fromLane="0" toLane="0" dir="l" state="M"/>
    <connection from=":J2_3" to="E3" fromLane="0" toLane="0" dir="r" state="M"/>
    <connection from=":J2_4" to="E4" fromLane="0" toLane="0" dir="s" state="M"/>
    <connection from=":J2_5" to="E1" fromLane="0" toLane="0" dir="l" state="M"/>
    <connection from=":J2_6" to="E2" fromLane="0" toLane="0" dir="r" state="M"/>
    <connection from=":J2_7" to="E3" fromLane="0" toLane="0" dir="s" state="M"/>
    <connection from=":J2_8" to="E4" fromLane="0" toLane="0" via=":J2_13_0" dir="l" state="m"/>
    <connection from=":J2_13" to="E4" fromLane="0" toLane="0" dir="l" state="M"/>
    <connection from=":J2_9" to="E1" fromLane="0" toLane="0" dir="r" state="M"/>
    <connection from=":J2_10" to="E2" fromLane="0" toLane="0" dir="s" state="M"/>
    <connection from=":J2_11" to="E3" fromLane="0" toLane="0" dir="l" state="M"/>
    <connection from=":J3_0" to="E9" fromLane="0" toLane="0" dir="r" state="M"/>
    <connection from=":J3_1" to="-E2" fromLane="0" toLane="0" dir="R" state="M"/>
    <connection from=":J3_2" to="E6" fromLane="0" toLane="0" dir="s" state="M"/>
    <connection from=":J3_3" to="E8" fromLane="0" toLane="0" dir="L" state="M"/>
    <connection from=":J3_4" to="E7" fromLane="0" toLane="0" dir="l" state="M"/>
    <connection from=":J3_5" to="E5" fromLane="0" toLane="0" dir="r" state="M"/>
    <connection from=":J3_6" to="E9" fromLane="0" toLane="0" dir="R" state="M"/>
    <connection from=":J3_7" to="-E2" fromLane="0" toLane="0" dir="s" state="M"/>
    <connection from=":J3_8" to="E6" fromLane="0" toLane="0" dir="L" state="M"/>